.model SLX-LX5093UWC D (IS=0.87e-14 RS=8.35 N=3.889 BV=5 IBV=1e-5 type=led)
